&time_control
 run_days                            = 0,
 run_hours                           = 0,
 run_minutes                         = 0,
 run_seconds                         = 0,
 start_year                          = 2018,  2018,
 start_month                         = 03,  03,
 start_day                           = 23,  23,
 start_hour                          = 00,  00,
 start_minute                        = 00, 
 start_second                        = 00,   
 end_year                            = 2018,  2018,
 end_month                           = 03,  03,
 end_day                             = 24,  24,
 end_hour                            = 12,  12,
 end_minute                          = 00,  
 end_second                          = 00,   
 interval_seconds                    = 21600,
 input_from_file                     = .true.,
 history_interval                    = 60,   
 frames_per_outfile                  = 1, 
 restart                             = .false.,
 restart_interval                    = 720,
 auxinput5_interval_m                = 60, 60, 60
 io_form_history                     = 2
 io_form_restart                     = 2
 io_form_input                       = 2
 io_form_boundary                    = 2
 io_form_auxinput4                   = 2
 io_form_auxinput5                   = 2
 io_form_auxinput12                  = 0
 auxinput4_inname                    = "wrflowinp_d<domain>"
 auxinput1_inname                    = "./met_em.d<domain>.<date>"
 auxinput12_inname                   = "wrf_chem_input"
 history_outname                     = "./wrfout/wrfout_d<domain>_<date>"
 debug_level                         = 9999
 /

 &domains
 time_step                           = 20,
 time_step_fract_num                 = 0,
 time_step_fract_den                 = 1,
 max_dom                             = 1,
 e_we                                = 40,    
 e_sn                                = 40,    
 e_vert                              = 74,    
 dx                                  = 4000, 
 dy                                  = 4000, 
 p_top_requested                     = 5000,
 num_metgrid_levels                  = 73,   
 num_metgrid_soil_levels             = 4,
 grid_id                             = 1,     2,     3,
 parent_id                           = 0,     1,     2,
 i_parent_start                      = 1,     6,     13,
 j_parent_start                      = 1,     31,    11,
 parent_grid_ratio                   = 1,     3,     3,
 parent_time_step_ratio              = 1,     3,     3,
 feedback                            = 1,
 smooth_option                       = 0
 /

 &physics
 mp_physics                          = 2,     2,     2,
 progn                               = 1,     1,     1,
 naer                                = 1e9
 ra_lw_physics                       = 1,     1,     1,
 ra_sw_physics                       = 2,     2,     2,
 radt                                = 30,    30,    30,
 ra_call_offset                      = -1,
 sf_sfclay_physics                   = 1,     1,     1,
 sf_surface_physics                  = 2,     2,     2,
 bl_pbl_physics                      = 1,     1,     1,
 bldt                                = 0,     0,     0,
 cu_physics                          = 5,     5,     5,
 cu_diag                             = 1,     1,     1,
 cudt                                = 0,     0,     0,
 isfflx                              = 1,
 ifsnow                              = 1,
 icloud                              = 1,
 surface_input_source                = 1,
 num_soil_layers                     = 4,
 num_land_cat                        = 24,
 sf_urban_physics                    = 0,     0,     0,
 maxiens                             = 1,
 maxens                              = 3,
 maxens2                             = 3,
 maxens3                             = 16,
 ensdim                              = 144,
 sst_update                          = 1, 
 cu_rad_feedback                     = .true.,
 /

 &fdda
 grid_fdda                    =   0,    1,    1,
 gfdda_inname                 = "wrffdda_d<domain>",
 gfdda_end_h                  =  36,   36,   36,
 gfdda_interval_m             = 360,  360,  360,
 guv                          = 0.0003, 0.0003, 0.0003
 gt                           = 0.0003, 0.0003, 0.0003
 gq                           = 0.0003, 0.0003, 0.0003
 io_form_gfdda                = 2,
 /

 &dynamics
 w_damping                           = 1,
 diff_opt                            = 1,
 km_opt                              = 4,
 diff_6th_opt                        = 0,      0,      0,
 diff_6th_factor                     = 0.12,   0.12,   0.12,
 base_temp                           = 290.
 damp_opt                            = 0,
 zdamp                               = 5000.,  5000.,  5000.,
 dampcoef                            = 0.01,    0.01,    0.01
 khdif                               = 0,      0,      0,
 kvdif                               = 0,      0,      0,
 non_hydrostatic                     = .true., .true., .true.,
 moist_adv_opt                       = 2,      2,      2,     
 scalar_adv_opt                      = 2,      2,      2,     
 chem_adv_opt                        = 2,      2,      2,     
/

 &bdy_control
 spec_bdy_width                      = 5,
 spec_zone                           = 1,
 relax_zone                          = 4,
 specified                           = .true., .false.,.false.,
 nested                              = .false., .true., .true.,
 /

 &grib2
 /

 &chem
 kemit                               = 19,
 chem_opt                            = 900,        11,    11,
 bioemdt                             = 30,       30,     30,
 photdt                              = 30,       30,     30,
 chemdt                              = 2.,       2.,     2.,
 io_style_emissions                  = 1,
 emiss_opt                           = 3,        3,      3,
 emiss_inpt_opt                      = 1,
 chem_in_opt                         = 1,        1,      1
 phot_opt                            = 2,        2,      2,
 gas_drydep_opt                      = 1,        1,      1,
 aer_drydep_opt                      = 1,        1,      1,
 bio_emiss_opt                       = 1,
 dust_opt                            = 3,
 dmsemis_opt                         = 0,
 seas_opt                            = 0,
 aer_op_opt                          = 1,        5,      5,
 opt_pars_out                        = 1,
 gas_bc_opt                          = 1,        1,      1,
 gas_ic_opt                          = 1,        1,      1,
 aer_bc_opt                          = 1,        1,      1,
 aer_ic_opt                          = 1,        1,      1,
 gaschem_onoff                       = 1,        1,      1,
 aerchem_onoff                       = 1,        1,      1,         
 wetscav_onoff                       = 0,        1,      1,
 cldchem_onoff                       = 0,        1,      1,
 vertmix_onoff                       = 1,        1,      1,
 chem_conv_tr                        = 1,        1,      1,
 biomass_burn_opt                    = 0,        0,      0,
 plumerisefire_frq                   = 30,       30,    30,
 aer_ra_feedback                     = 1,        1,      1,
 have_bcs_chem                       = .true., .false., .false.,
 /

 &namelist_quilt
 nio_tasks_per_group = 0,
 nio_groups = 1,
 /
