&time_control
 run_days                            = 0,
 run_hours                           = 0,
 run_minutes                         = 0,
 run_seconds                         = 0,
 start_year                          = 2018,  2018,
 start_month                         = 06,  06,
 start_day                           = 24,  24,
 start_hour                          = 00,  00,
 start_minute                        = 00,  00,
 start_second                        = 00,  00,
 end_year                            = 2018,  2018,
 end_month                           = 08,  08,
 end_day                             = 02,  02,
 end_hour                            = 00,  00,
 end_minute                          = 00,  00,
 end_second                          = 00,  00, 
 interval_seconds                    = 21600,
 input_from_file                     = .true., .true.,
 history_interval                    = 60, 60,   
 frames_per_outfile                  = 1, 1
 restart                             = .false.,
 restart_interval                    = 720,
 write_hist_at_0h_rst                = .true.,
 reset_simulation_start              = .false.,
 iofields_filename  		     = "emiss_add_chem.txt","emiss_add_chem.txt"
 io_form_auxhist24                   = 2
 auxhist24_interval	             = 60, 60, 60, 60, 
 auxinput5_interval_m                = 60, 60, 60
 auxinput4_interval                  = 360, 360, 360
 io_form_history                     = 2
 io_form_restart                     = 2
 io_form_input                       = 2
 io_form_boundary                    = 2
 io_form_auxinput4                   = 2
 io_form_auxinput5                   = 2
 io_form_auxinput12                  = 2
 io_form_auxinput6                   = 2
 auxinput4_inname                    = "wrflowinp_d<domain>"
 auxinput1_inname                    = "./met_em.d<domain>.<date>"
 auxinput12_inname                   = "wrf_chem_input"
 auxinput6_inname                    = "wrfbiochemi_d<domain>"
 history_outname                     = "./wrfout/wrfout_d<domain>_<date>"
 debug_level                         = 9999
 /

 &domains
 time_step                           = 60,
 time_step_fract_num                 = 0,
 time_step_fract_den                 = 1,
 max_dom                             = 2,
 e_we                                = 90, 88     
 e_sn                                = 96, 106   
 e_vert                              = 48,48 
 eta_levels                          = 1.0000, 0.9930, 0.9830, 0.9700, 0.9540, 0.9340, 0.9096,
                                       0.8945, 0.8794, 0.8643, 0.8492, 0.8342, 0.8191, 0.7990,
                                       0.7738, 0.7487, 0.7236, 0.6984, 0.6733, 0.6356, 0.5980,
                                       0.5603, 0.5226, 0.4850, 0.4473, 0.4097, 0.3721, 0.3346,
                                       0.2851, 0.2420, 0.2055, 0.1746, 0.1484, 0.1262, 0.1072,
                                       0.0932, 0.0813, 0.0704, 0.0604, 0.0512, 0.0428, 0.0350, 
                                       0.0278, 0.0213, 0.0153, 0.0097, 0.0047, 0.0000,    
 dx                                  = 12000, 4000, 
 dy                                  = 12000, 4000,
 p_top_requested                     = 5000,
 num_metgrid_levels                  = 73,   
 num_metgrid_soil_levels             = 4,
 grid_id                             = 1,     2,     3,
 parent_id                           = 0,     1,     2,
 i_parent_start                      = 1,     31,     13,
 j_parent_start                      = 1,     31,    11,
 parent_grid_ratio                   = 1,     3,     3,
 parent_time_step_ratio              = 1,     3,     3,
 feedback                            = 1,
 smooth_option                       = 1
 /

 &physics
 mp_physics                          = 2,     2,     2,
 progn                               = 1,     1,     1,
 naer                                = 1e9
 ra_lw_physics                       = 4,     4,     4,
 ra_sw_physics                       = 4,     4,     4,
 radt                                = 30,    30,    30,
 ra_call_offset                      = 0,
 sf_sfclay_physics                   = 1,     1,     1,
 sf_surface_physics                  = 2,     2,     2,
 bl_pbl_physics                      = 1,     1,     1,
 topo_wind                           = 1,     1, 
 bldt                                = 0,     0,     0,
 cu_physics                          = 5,     0,     0,
 cu_diag                             = 1,     0,     0,
 cudt                                = 0,     0,     0,
 isfflx                              = 1,
 ifsnow                              = 1,
 icloud                              = 1,
 surface_input_source                = 1,
 num_soil_layers                     = 4,
 num_land_cat                        = 20,
 sf_urban_physics                    = 0,     0,     0,
 maxiens                             = 1,
 maxens                              = 3,
 maxens2                             = 3,
 maxens3                             = 16,
 ensdim                              = 144,
 sst_update                          = 1, 
 cu_rad_feedback                     = .true.,
 usemonalb                           = .true.
 rdmaxalb                            = .true.
 rdlai2d                             = .true.
 /

 &fdda
 grid_fdda                    =   0,    0,    0,
 gfdda_inname                 = "wrffdda_d<domain>",
 gfdda_end_h                  = 936,  936,  936,
 gfdda_interval_m             = 360,  360,  360,
 fgdt                         = 0,     0,    0,
 if_no_pbl_nudging_uv         = 0,     0,    0,
 if_no_pbl_nudging_t          = 0,     0,    0,
 if_no_pbl_nudging_q          = 0,     0,    0,
 if_zfac_uv                   = 0,     0,    0,
 k_zfac_uv                    = 10,
 if_zfac_t                    = 1,     0,    0,
 k_zfac_t                     = 48,
 if_zfac_q                    = 1,     0,    0,
 k_zfac_q                     = 48,
 guv                          = 0.0003, 0.0003, 0.0003
 gt                           = 0.0, 0.0, 0.0
 gq                           = 0.0, 0.0, 0.0
 if_ramping                   = 0, 
 dtramp_min                   = 60.0,
 io_form_gfdda                = 2,
 /

 &dynamics
 w_damping                           = 1,
 diff_opt                            = 1,      1,
 km_opt                              = 4,      4,
 diff_6th_opt                        = 0,      0,      0,
 diff_6th_factor                     = 0.12,   0.12,   0.12,
 base_temp                           = 290.
 damp_opt                            = 0,
 zdamp                               = 5000.,  5000.,  5000.,
 dampcoef                            = 0.01,    0.01,    0.01
 khdif                               = 0,      0,      0,
 kvdif                               = 0,      0,      0,
 non_hydrostatic                     = .true., .true., .true.,
 moist_adv_opt                       = 2,      2,      2,     
 scalar_adv_opt                      = 2,      2,      2,     
 chem_adv_opt                        = 2,      2,      2,     
/

 &bdy_control
 spec_bdy_width                      = 5,
 spec_zone                           = 1,
 relax_zone                          = 4,
 specified                           = .true., .false.,.false.,
 nested                              = .false., .true., .true.,
 /

 &grib2
 /

 &chem
 kemit                               = 19,
 chem_opt                            = 903,      903,    903,
 bioemdt                             = 30,       30,     30,
 photdt                              = 30,       30,     30,
 chemdt                              = 2.,       2.,     2.,
 io_style_emissions                  = 1,
 emiss_opt                           = 3,        3,      3,
 emiss_inpt_opt                      = 1,        1,
 chem_in_opt                         = 1,        1,      1
 phot_opt                            = 3,        3,      3,
 gas_drydep_opt                      = 1,        1,      1,
 aer_drydep_opt                      = 1,        1,      1,
 bio_emiss_opt                       = 4,        4,
 dust_opt                            = 3,
 dust_schme                          = 3, 
 dustwd_onoff                        = 1,
 dust_gamma                          = 1.0 
 dmsemis_opt                         = 0,
 seas_opt                            = 1,
 aer_op_opt                          = 1,        1,      1,
 opt_pars_out                        = 1,
 gas_bc_opt                          = 1,        1,      1,
 gas_ic_opt                          = 1,        1,      1,
 aer_bc_opt                          = 1,        1,      1,
 aer_ic_opt                          = 1,        1,      1,
 gaschem_onoff                       = 1,        1,      1,
 aerchem_onoff                       = 1,        1,      1,         
 wetscav_onoff                       = 0,        0,      0,
 cldchem_onoff                       = 0,        0,      0,
 vertmix_onoff                       = 1,        1,      1,
 chem_conv_tr                        = 1,        0,      0,
 biomass_burn_opt                    = 0,        0,      0,
 plumerisefire_frq                   = 30,       30,    30,
 aer_ra_feedback                     = 1,        1,      1,
 have_bcs_chem                       = .true., .true., .true.,
 ne_area                             = 1000,
 diagnostic_dep                      = 1,        1,       1,    
 diagnostic_chem                     = 1,        1,       1,     
/

 &namelist_quilt
 nio_tasks_per_group = 0,
 nio_groups = 1,
 /
